```spice
* Stage 1: PMOS Common-Source Amplifier
M1 out1 in1 gnd gnd pmos_wl
Rload1 out1 vdd 10k

* Stage 2: PMOS Common-Source Amplifier (DC coupled to Stage 1)
M2 out2 out1 gnd gnd pmos_wl
Rload2 out2 vdd 10k

* Device Models
.model pmos_wl pmos (level=1 vto=-0.7 kp=50u lambda=0.1 cgdo=0 cgd=0)
```