```spice
* 1:2 NMOS Current Mirror
* Amplifying device (M1) and Load/Mirror device (M2)
* M1 acts as the reference input, M2 provides the scaled output current.
* W/L ratios are set to achieve a 1:2 current ratio (assuming identical Vgs).

M1 out in in bulk NMOS1 W=10u L=1u
M2 out out in bulk NMOS2 W=20u L=1u

.MODEL NMOS1 NMOS (LEVEL=1 VTO=0.7 KP=100u GAMMA=0.5 LAMBDA=0.05)
.MODEL NMOS2 NMOS (LEVEL=1 VTO=0.7 KP=100u GAMMA=0.5 LAMBDA=0.05)
```