```spice
* 1-to-4 Cascode NMOS Current Mirror
* Topology: Input branch (M1, M2) and Output branch (M3, M4)
* M1/M3 are the cascode devices; M2/M4 are the input/output current mirror transistors.
* All NMOS sources connected to ground (0). Bulks tied to sources.

M1 1 2 0 0 M_n W=1u L=1u
M2 3 2 0 0 M_n W=4u L=1u
M3 1 4 0 0 M_n W=1u L=1u
M4 3 4 0 0 M_n W=4u L=1u

.MODEL M_n NMOS (LEVEL=1 VTO=0.7 KP=100u GAMMA=0.5 LAMBDA=0.02)
```