```spice
* Folded-Cascode OTA: NMOS Inputs, PMOS Current Source Load, NMOS Cascode Devices
* Topology: 
*   Input Stage: NMOS differential pair (M1, M2) with tail current I_tail.
*   Active Load/Current Source: PMOS device (M3) sourcing current to VDD.
*   Cascode Stage: NMOS cascode devices (M4, M5) stacked on the input pair to fold the current up.
*   Output: Single-ended at the drain of the cascode devices.

* Parameters
VDD 1 0 DC 2.5
I_tail 2 0 DC 100u

* Devices
M1 in1 out1 0 0 nmos W=10u L=1u
M2 in2 out1 0 0 nmos W=10u L=1u
M3 out1 VDD VDD pmos W=50u L=1u
M4 out1 out2 0 0 nmos W=10u L=1u
M5 out1 out2 0 0 nmos W=10u L=1u

* Models
.model nmos nmos (level=1 VTO=0.4 KP=110u GAMMA=0.6 LAMBDA=0.05)
.model pmos pmos (level=1 VTO=-0.4 KP=50u GAMMA=0.6 LAMBDA=0.05)
```