```spice
M1 out gate out out PMOS_W100 L100
M2 out gate out out NMOS_W100 L100
.MODEL PMOS_W100 PMOS (LEVEL=1 VTO=-0.7 KP=50u CGDO=0 CGSO=0)
.MODEL NMOS_W100 NMOS (LEVEL=1 VTO=0.7 KP=50u CGDO=0 CGSO=0)
```