```spice
* Two-Input CMOS NOR Gate
* Pull-up Network: Parallel PMOS transistors (M1, M2)
* Pull-down Network: Series NMOS transistors (M3, M4)

M1 out in1 vdd vdd pmos W=10u L=1u
M2 out in2 vdd vdd pmos W=10u L=1u
M3 out in1 nout nout nmos W=10u L=1u
M4 nout in2 gnd gnd nmos W=10u L=1u

.MODEL pmos pmos (LEVEL=1 VTO=-0.7 KP=50u CGDO=0 CGSO=0)
.MODEL nmos nmos (LEVEL=1 VTO=0.7 KP=120u CGDO=0 CGSO=0)
```