```spice
M1 out1 in1 out1 out1 PMOS_LATCH W=10u L=1u M=1
M2 out1 in2 out1 out1 NMOS_LATCH W=10u L=1u M=1
M3 out2 in2 out2 out2 PMOS_LATCH W=10u L=1u M=1
M4 out2 in1 out2 out2 NMOS_LATCH W=10u L=1u M=1

.MODEL PMOS_LATCH PMOS (LEVEL=1 VTO=-0.7 KP=50u CGDO=0 CGSO=0 CGBO=0)
.MODEL NMOS_LATCH NMOS (LEVEL=1 VTO=0.7 KP=50u CGDO=0 CGSO=0 CGBO=0)
```