```spice
* NMOS Differential Pair with Resistor Loads and Current-Mirror Tail Bias
* Active Devices Only (No bias networks, caps, or simulation directives)

* --- Amplifying Stage (NMOS Differential Pair) ---
M1 out1 in1 0 0 diff_nmos
M2 out2 in2 0 0 diff_nmos

* --- Load Resistors ---
Rload1 out1 VDD 10k
Rload2 out2 VDD 10k

* --- Current Mirror Tail Bias (PMOS Current Source) ---
* Reference Branch
Mtail_ref tail_mirror_in VDD VDD tail_pmos
* Output Branch (Connected to sources of M1/M2)
Mtail_out tail_mirror_in tail_mirror_out VDD tail_pmos

* --- Models ---
.model diff_nmos NMOS (VTO=0.4 KP=100u LAMBDA=0.05 CGSO=1p CGDO=1p CJ=1e-3)
.model tail_pmos PMOS (VTO=-0.4 KP=50u LAMBDA=0.05 CGSO=1p CGDO=1p CJ=1e-3)
```