```spice
M1 nmir inp ntail 0 NMOS W=10u L=1u
M2 out inn ntail 0 NMOS W=10u L=1u
M3 nmir nmir vdd vdd PMOS W=20u L=1u
M4 out nmir vdd vdd PMOS W=20u L=1u
M5 ntail vbiasn 0 0 NMOS W=20u L=1u

.MODEL NMOS NMOS (LEVEL=1 VTO=0.7 KP=200u LAMBDA=0.02)
.MODEL PMOS PMOS (LEVEL=1 VTO=-0.7 KP=80u LAMBDA=0.02)
```