```spice
.SUBCKT OTA5T_PMOS_IN INP INN OUT VBIASP VDD VSS

M1 OUT  INP  TAIL VDD PMOS1 W=20u L=1u
M2 NREF INN  TAIL VDD PMOS1 W=20u L=1u
M3 NREF NREF VSS  VSS NMOS1 W=10u L=1u
M4 OUT  NREF VSS  VSS NMOS1 W=10u L=1u
M5 TAIL VBIASP VDD VDD PMOS1 W=40u L=1u

.MODEL NMOS1 NMOS LEVEL=1 VTO=0.7 KP=120u LAMBDA=0.02
.MODEL PMOS1 PMOS LEVEL=1 VTO=-0.7 KP=50u  LAMBDA=0.02

.ENDS OTA5T_PMOS_IN
```