```spice
MREF IREF IREF 0 0 NMOS W=10u L=1u
MOUT OUT  IREF 0 0 NMOS W=10u L=1u

.MODEL NMOS NMOS (LEVEL=1 VTO=0.7 KP=100u LAMBDA=0.02)
```