```spice
MREF IREF IREF VDD VDD PMOS W=10u L=1u
MOUT OUT  IREF VDD VDD PMOS W=10u L=1u

.MODEL PMOS PMOS (LEVEL=1 VTO=-0.7 KP=50u LAMBDA=0.02)
```