```spice
MREF IREF IREF VDD VDD PMOS W=1u L=180n
MOUT IOUT IREF VDD VDD PMOS W=1u L=180n M=8

.MODEL PMOS PMOS (LEVEL=1 VTO=-0.7 KP=50u LAMBDA=0.02)
```