```spice
M1 n1   n1   0 0 NMOS W=10u L=1u
M2 n2   n1   0 0 NMOS W=10u L=1u
M3 iref iref n1 0 NMOS W=10u L=1u
M4 iout iref n2 0 NMOS W=10u L=1u

.MODEL NMOS NMOS (LEVEL=1 VTO=0.7 KP=200u LAMBDA=0.02)
```