```spice
M1 out in 0 0 NMOS W=10u L=1u
RD vdd out 10k

.MODEL NMOS NMOS (LEVEL=1 VTO=0.7 KP=200u LAMBDA=0.02)
```