```spice
* NMOS source follower with NMOS current-source load

M1 VDD VIN VOUT 0 NMOS W=10u L=1u
M2 VOUT VBIAS 0 0 NMOS W=10u L=1u

.MODEL NMOS NMOS (LEVEL=1 VTO=0.7 KP=200u LAMBDA=0.02)
```