```spice
* 1:1 cascode PMOS current mirror
* Terminals: VDD, IREF, IOUT

MREF   nref  nref  VDD   VDD  PMOS W=10u L=1u
MCREF  IREF  IREF  nref  VDD  PMOS W=10u L=1u
MOUT   nout  nref  VDD   VDD  PMOS W=10u L=1u
MCOUT  IOUT  IREF  nout  VDD  PMOS W=10u L=1u

.MODEL PMOS PMOS LEVEL=1 VTO=-0.7 KP=50u LAMBDA=0.02
```