```spice
M1 0 IN OUT VDD PMOD W=20u L=1u
MLOAD OUT VBIAS VDD VDD PMOD W=10u L=1u

.MODEL PMOD PMOS (LEVEL=1 VTO=-0.7 KP=50u LAMBDA=0.02)
```