```spice
RBIAS VDD VBIAS 100k
MNB VBIAS VBIAS 0 0 NMOS W=10u L=1u

.MODEL NMOS NMOS (LEVEL=1 VTO=0.7 KP=200u LAMBDA=0.02)
```