```spice
MPBIAS VBP VBP VDD VDD PMOS W=10u L=1u
RBIAS VBP 0 100k

.MODEL PMOS PMOS (LEVEL=1 VTO=-0.7 KP=50u LAMBDA=0.02)
```