```spice
M1 out vg in 0 NMOS W=10u L=1u
RLOAD vdd out 10k

.MODEL NMOS NMOS (LEVEL=1 VTO=0.7 KP=200u LAMBDA=0.02)
```