```spice
M1 out in 0 0 NMOS W=10u L=1u
M2 out vbiasp vdd vdd PMOS W=20u L=1u

.MODEL NMOS NMOS (LEVEL=1 VTO=0.7 KP=200u LAMBDA=0.02)
.MODEL PMOS PMOS (LEVEL=1 VTO=-0.7 KP=100u LAMBDA=0.02)
```