```spice
MP1 out in vdd vdd PMOS W=10u L=1u
MNLOAD out nbias 0 0 NMOS W=5u L=1u

.MODEL PMOS PMOS LEVEL=1 VTO=-0.7 KP=50u LAMBDA=0.02
.MODEL NMOS NMOS LEVEL=1 VTO=0.7 KP=100u LAMBDA=0.02
```