```spice
MREF IREF IREF 0 0 NMOS W=1u L=180n
MOUT IOUT IREF 0 0 NMOS W=1u L=180n M=2

.MODEL NMOS NMOS LEVEL=1 VTO=0.5 KP=200u LAMBDA=0.02
```