```spice
MREF iref iref 0 0 NMOS W=1u L=180n
MOUT out  iref 0 0 NMOS W=1u L=180n M=4

.MODEL NMOS NMOS LEVEL=1 VTO=0.5 KP=200u LAMBDA=0.02
```