```spice
* 1-to-4 PMOS current mirror

MREF  IREF IREF VDD VDD PMOS W=10u L=1u
MOUT1 OUT1 IREF VDD VDD PMOS W=10u L=1u
MOUT2 OUT2 IREF VDD VDD PMOS W=10u L=1u
MOUT3 OUT3 IREF VDD VDD PMOS W=10u L=1u
MOUT4 OUT4 IREF VDD VDD PMOS W=10u L=1u

.MODEL PMOS PMOS (LEVEL=1 VTO=-0.7 KP=50u LAMBDA=0.02)
```