```spice
* 1:2 cascode PMOS current mirror

MREF1 NREF NREF VDD VDD PMOS W=10u L=1u
MREF2 IREF IREF NREF VDD PMOS W=10u L=1u

MOUT1 NOUT NREF VDD VDD PMOS W=10u L=1u M=2
MOUT2 OUT  IREF NOUT VDD PMOS W=10u L=1u M=2

.MODEL PMOS PMOS (LEVEL=1 VTO=-0.7 KP=50u LAMBDA=0.02)
```