```spice
* 1-to-4 cascode PMOS current mirror

MREF1 ncas nbias VDD VDD PMOS W=10u L=1u
MREF2 IREF IREF ncas VDD PMOS W=10u L=1u

MOUT1A nout1 nbias VDD VDD PMOS W=10u L=1u
MOUT1B OUT1 IREF nout1 VDD PMOS W=10u L=1u

MOUT2A nout2 nbias VDD VDD PMOS W=10u L=1u
MOUT2B OUT2 IREF nout2 VDD PMOS W=10u L=1u

MOUT3A nout3 nbias VDD VDD PMOS W=10u L=1u
MOUT3B OUT3 IREF nout3 VDD PMOS W=10u L=1u

MOUT4A nout4 nbias VDD VDD PMOS W=10u L=1u
MOUT4B OUT4 IREF nout4 VDD PMOS W=10u L=1u

.MODEL PMOS PMOS LEVEL=1 VTO=-0.7 KP=50u LAMBDA=0.02
```