```spice
.SUBCKT NMOS_WIDE_SWING_CASCODE_MIRROR IREF IOUT VCASN VSS

MREF  NREF  NREF   VSS VSS NMOS W=10u L=1u M=1
MOUT  NOUT  NREF   VSS VSS NMOS W=10u L=1u M=1
MCREF IREF  VCASN  NREF VSS NMOS W=10u L=1u M=1
MCOUT IOUT  VCASN  NOUT VSS NMOS W=10u L=1u M=1

.MODEL NMOS NMOS LEVEL=1 VTO=0.5 KP=200u LAMBDA=0.02

.ENDS NMOS_WIDE_SWING_CASCODE_MIRROR
```