```spice
* NMOS modified Wilson current mirror (1:1)
M1 iref nfb 0 0 NMOS W=10u L=1u
M2 iout nfb 0 0 NMOS W=20u L=1u
M3 iref iout nfb 0 NMOS W=10u L=1u
M4 nfb nfb 0 0 NMOS W=10u L=1u

.MODEL NMOS NMOS LEVEL=1 VTO=0.7 KP=100u LAMBDA=0.02
```