```spice
M1 n_g n_g VDD VDD PMOS W=10u L=1u
M2 OUT n_g VDD VDD PMOS W=10u L=1u
M3 IREF OUT n_g VDD PMOS W=10u L=1u

.MODEL PMOS PMOS (LEVEL=1 VTO=-0.7 KP=50u LAMBDA=0.02)
```