```spice
.SUBCKT WILSON_NMOS IREF IOUT VSS
M1 NBIAS NBIAS VSS VSS NMOS W=10u L=1u
M2 IOUT  NBIAS VSS VSS NMOS W=10u L=1u
M3 IREF  IOUT  NBIAS VSS NMOS W=10u L=1u
.ENDS WILSON_NMOS

.MODEL NMOS NMOS (LEVEL=1 VTO=0.7 KP=200u LAMBDA=0.02)
```