```spice
.SUBCKT PMOS_WILSON IREF IOUT VDD
M1 X    X    VDD  VDD  PMOD  W=10u  L=1u
M2 IOUT X    VDD  VDD  PMOD  W=10u  L=1u
M3 IREF IOUT X    VDD  PMOD  W=10u  L=1u

.MODEL PMOD PMOS (LEVEL=1 VTO=-0.7 KP=50u LAMBDA=0.02)
.ENDS PMOS_WILSON
```