```spice
* NMOS differential pair with PMOS diode-connected loads

M1 outp inp tail 0 NMOS W=10u L=1u
M2 outn inn tail 0 NMOS W=10u L=1u

M3 outp outp VDD VDD PMOS W=20u L=1u
M4 outn outn VDD VDD PMOS W=20u L=1u

.MODEL NMOS NMOS LEVEL=1 VTO=0.7 KP=200u LAMBDA=0.02
.MODEL PMOS PMOS LEVEL=1 VTO=-0.7 KP=100u LAMBDA=0.02
```