```spice
* PMOS differential pair with NMOS diode-connected loads

MTAIL tail vbiasp VDD VDD PMOS W=20u L=1u
MP1 outp inp tail VDD PMOS W=10u L=1u
MP2 outn inn tail VDD PMOS W=10u L=1u

MN1 outp outp VSS VSS NMOS W=10u L=1u
MN2 outn outn VSS VSS NMOS W=10u L=1u

.MODEL PMOS PMOS LEVEL=1 VTO=-0.7 KP=50u LAMBDA=0.02
.MODEL NMOS NMOS LEVEL=1 VTO=0.7 KP=100u LAMBDA=0.02
```