```spice
.SUBCKT PMOS_DIFF_CASCODE_NMIR INP INN OUT VBP VDD VSS

MPTAIL ntail VBP VDD   VDD PMOS W=40u L=1u
MPINP  nref  INP ntail VDD PMOS W=20u L=1u
MPINN  OUT   INN ntail VDD PMOS W=20u L=1u

MNREF  ncas  ncas VSS VSS NMOS W=10u L=1u
MNMIR  noutc ncas VSS VSS NMOS W=10u L=1u
MNCREF nref  nref ncas VSS NMOS W=10u L=1u
MNCCAS OUT   nref noutc VSS NMOS W=10u L=1u

.MODEL NMOS NMOS LEVEL=1 VTO=0.7  KP=100u LAMBDA=0.02
.MODEL PMOS PMOS LEVEL=1 VTO=-0.7 KP=50u  LAMBDA=0.02

.ENDS PMOS_DIFF_CASCODE_NMIR
```