```spice
.SUBCKT PMOS_TELESCOPIC_OTA_SE OUT INP INN VDD VSS VBP_TAIL VBP_CAS VBN_CAS

MPTAIL  PSRC  VBP_TAIL  VDD   VDD  PMOS  W=40u L=0.5u

MPINP   P1    INP       PSRC  VDD  PMOS  W=20u L=0.5u
MPINN   P2    INN       PSRC  VDD  PMOS  W=20u L=0.5u

MPCAS_L NREF  VBP_CAS   P1    VDD  PMOS  W=20u L=0.5u
MPCAS_R OUT   VBP_CAS   P2    VDD  PMOS  W=20u L=0.5u

MNCAS_L NREF  VBN_CAS   XREF  VSS  NMOS  W=10u L=0.5u
MNCAS_R OUT   VBN_CAS   XOUT  VSS  NMOS  W=10u L=0.5u

MNMIR_L XREF  XREF      VSS   VSS  NMOS  W=10u L=0.5u
MNMIR_R XOUT  XREF      VSS   VSS  NMOS  W=10u L=0.5u

.ENDS PMOS_TELESCOPIC_OTA_SE

.MODEL NMOS NMOS (LEVEL=1 VTO=0.5 KP=200u LAMBDA=0.02)
.MODEL PMOS PMOS (LEVEL=1 VTO=-0.5 KP=80u LAMBDA=0.02)
```