```spice
M1 out vgp in VDD PMOS W=20u L=1u
M2 out vgn 0 0 NMOS W=10u L=1u

.MODEL PMOS PMOS (LEVEL=1 VTO=-0.7 KP=50u LAMBDA=0.02)
.MODEL NMOS NMOS (LEVEL=1 VTO=0.7 KP=100u LAMBDA=0.02)
```