```spice
M1 ncas in  vdd vdd PMOS W=20u L=1u
M2 out  vbp ncas vdd PMOS W=20u L=1u
M3 out  vbn 0    0   NMOS W=10u L=1u

.MODEL PMOS PMOS (LEVEL=1 VTO=-0.7 KP=50u  LAMBDA=0.02)
.MODEL NMOS NMOS (LEVEL=1 VTO=0.7  KP=120u LAMBDA=0.02)
```