```spice
.SUBCKT SRAM6T BL BLB WL VDD VSS Q QB

MPU1 Q  QB VDD VDD PMOS W=1u L=0.18u
MPD1 Q  QB VSS VSS NMOS W=2u L=0.18u
MPU2 QB Q  VDD VDD PMOS W=1u L=0.18u
MPD2 QB Q  VSS VSS NMOS W=2u L=0.18u

MAX1 BL  WL Q  VSS NMOS W=1u L=0.18u
MAX2 BLB WL QB VSS NMOS W=1u L=0.18u

.ENDS SRAM6T

.MODEL NMOS NMOS LEVEL=1 VTO=0.45 KP=200u LAMBDA=0.05
.MODEL PMOS PMOS LEVEL=1 VTO=-0.45 KP=100u LAMBDA=0.05
```