```spice
M1 VOUT VIN 0 0 NMOS W=10u L=1u
MLOAD VDD VDD VOUT 0 NMOS W=5u L=1u

.MODEL NMOS NMOS (LEVEL=1 VTO=0.7 KP=200u LAMBDA=0.02)
```