```spice
MAMP  out in  VDD VDD PMOS W=10u L=1u
MLOAD 0   0   out VDD PMOS W=10u L=1u

.MODEL PMOS PMOS (LEVEL=1 VTO=-0.7 KP=50u LAMBDA=0.02)
```