```spice
MP1 OUT IN  VDD VDD PMOS W=20u L=1u
MN1 OUT OUT 0   0   NMOS W=10u L=1u

.MODEL PMOS PMOS LEVEL=1 VTO=-0.7 KP=50u LAMBDA=0.02
.MODEL NMOS NMOS LEVEL=1 VTO=0.7  KP=100u LAMBDA=0.02
```