```spice
M1 VDD IN OUT 0 NMOS W=10u L=1u
M2 OUT NBIAS 0 0 NMOS W=5u L=1u
CLOAD OUT 0 1p

.MODEL NMOS NMOS (LEVEL=1 VTO=0.7 KP=200u LAMBDA=0.02)
```