```spice
MPF 0 IN OUT VDD PMOS W=20u L=1u
MNBIAS OUT VBIASN 0 0 NMOS W=10u L=1u
CLOAD OUT 0 1p

.MODEL PMOS PMOS LEVEL=1 VTO=-0.7 KP=50u LAMBDA=0.02
.MODEL NMOS NMOS LEVEL=1 VTO=0.7 KP=100u LAMBDA=0.02
```