```spice
M1 OUT VG SRC 0 NMOS W=10u L=1u
RLOAD VDD OUT 10k
CIN IN SRC 1u
IBIAS SRC 0 DC 100u

.MODEL NMOS NMOS (LEVEL=1 VTO=0.7 KP=200u LAMBDA=0.02)
```