```spice
* Cascoded NMOS common-source amplifier with cascoded PMOS current-source load

M1 n_ncas in      gnd gnd NMOS W=10u L=1u
M2 out    vb_ncas n_ncas gnd NMOS W=10u L=1u

M3 out    vb_pcas n_pcas vdd PMOS W=20u L=1u
M4 n_pcas vb_pbias vdd vdd PMOS W=20u L=1u

.MODEL NMOS NMOS LEVEL=1 VTO=0.7 KP=200u LAMBDA=0.02
.MODEL PMOS PMOS LEVEL=1 VTO=-0.7 KP=100u LAMBDA=0.02
```