```spice
* Cascoded PMOS common-source amplifier with cascoded NMOS current-source load

MP1   p_int  VIN    VDD    VDD  PMOS  W=20u L=1u
MPcas OUT    VBP    p_int  VDD  PMOS  W=20u L=1u

MNcas OUT    VBN    n_int  0    NMOS  W=10u L=1u
MN1   n_int  VBIASN 0      0    NMOS  W=10u L=1u

.MODEL NMOS NMOS LEVEL=1 VTO=0.7 KP=200u LAMBDA=0.02
.MODEL PMOS PMOS LEVEL=1 VTO=-0.7 KP=100u LAMBDA=0.02
```