```spice
* NMOS differential amplifier with PMOS current-source loads

M1 out_n in_p tail VSS NMOS W=10u L=1u
M2 out_p in_n tail VSS NMOS W=10u L=1u

M3 out_n vb_p VDD VDD PMOS W=20u L=1u
M4 out_p vb_p VDD VDD PMOS W=20u L=1u

M5 tail vb_tail VSS VSS NMOS W=20u L=1u

.MODEL NMOS NMOS LEVEL=1 VTO=0.7 KP=200u LAMBDA=0.02
.MODEL PMOS PMOS LEVEL=1 VTO=-0.7 KP=100u LAMBDA=0.02
```