```spice
MP1 OUTN INP TAIL VDD PMOS W=20u L=1u
MP2 OUTP INN TAIL VDD PMOS W=20u L=1u
MTAIL TAIL VBP VDD VDD PMOS W=40u L=1u

ML1 OUTN VBN 0 0 NMOS W=10u L=1u
ML2 OUTP VBN 0 0 NMOS W=10u L=1u

.MODEL PMOS PMOS LEVEL=1 VTO=-0.7 KP=50u LAMBDA=0.02
.MODEL NMOS NMOS LEVEL=1 VTO=0.7 KP=100u LAMBDA=0.02
```