```spice
.SUBCKT PMOS_TELESCOPIC_OTA INP INN OUTP OUTN VDD VSS VBP_TAIL VBP_CAS VBN_CAS VBN

MPTAIL  NTAIL VBP_TAIL VDD   VDD PMOS W=40u L=1u
MPINP   NMP    INP      NTAIL VDD PMOS W=20u L=1u
MPINN   NMN    INN      NTAIL VDD PMOS W=20u L=1u

MPCASP  OUTN   VBP_CAS  NMP   VDD PMOS W=20u L=1u
MPCASN  OUTP   VBP_CAS  NMN   VDD PMOS W=20u L=1u

MNCASP  OUTN   VBN_CAS  NDN   VSS NMOS W=10u L=1u
MNCASN  OUTP   VBN_CAS  NDP   VSS NMOS W=10u L=1u

MNLOADN NDN    VBN      VSS   VSS NMOS W=10u L=1u
MNLOADP NDP    VBN      VSS   VSS NMOS W=10u L=1u

.ENDS PMOS_TELESCOPIC_OTA

.MODEL NMOS NMOS (LEVEL=1 VTO=0.5 KP=200u LAMBDA=0.02)
.MODEL PMOS PMOS (LEVEL=1 VTO=-0.5 KP=100u LAMBDA=0.02)
```