```spice
M1 OUTP INP TAIL VDD PMOS W=20u L=1u
M2 OUTN INN TAIL VDD PMOS W=20u L=1u
MTAIL TAIL VBP VDD VDD PMOS W=40u L=1u

MND1 OUTP OUTP 0 0 NMOS W=10u L=1u
MND2 OUTN OUTN 0 0 NMOS W=10u L=1u
MNC1 OUTP VBN 0 0 NMOS W=10u L=1u
MNC2 OUTN VBN 0 0 NMOS W=10u L=1u

.MODEL NMOS NMOS LEVEL=1 VTO=0.7 KP=200u LAMBDA=0.02
.MODEL PMOS PMOS LEVEL=1 VTO=-0.7 KP=100u LAMBDA=0.02
```