```spice
* NMOS differential amplifier with resistor loads and NMOS current-mirror tail bias

RD1 VDD OUTP 20k
RD2 VDD OUTN 20k

M1 OUTP INP TAIL 0 NMOS W=20u L=1u
M2 OUTN INN TAIL 0 NMOS W=20u L=1u

MTAIL TAIL NBIAS 0 0 NMOS W=10u L=1u M=2
MREF  NBIAS NBIAS 0 0 NMOS W=10u L=1u

.MODEL NMOS NMOS (LEVEL=1 VTO=0.7 KP=200u LAMBDA=0.02)
```