```spice
M1 OUT IN 0 0 NMOS W=10u L=1u
RD VDD OUT 10k
RF OUT IN 1Meg

.MODEL NMOS NMOS (LEVEL=1 VTO=0.7 KP=200u LAMBDA=0.02)
```