```spice
* Unity-gain buffer using NMOS-input 5T OTA
* Pins: VIN OUT VDD VSS VBN

M1 nmir VIN  ntail VSS NMOS W=10u L=1u
M2 OUT  OUT  ntail VSS NMOS W=10u L=1u
M3 nmir nmir VDD   VDD PMOS W=20u L=1u
M4 OUT  nmir VDD   VDD PMOS W=20u L=1u
M5 ntail VBN  VSS   VSS NMOS W=20u L=1u

.MODEL NMOS NMOS LEVEL=1 VTO=0.7 KP=200u LAMBDA=0.02
.MODEL PMOS PMOS LEVEL=1 VTO=-0.7 KP=100u LAMBDA=0.02
```