```spice
.SUBCKT PMOS_INPUT_5T_OTA_NONINV VIN OUT VDD VSS PBIAS

* PMOS-input 5T OTA
MTAIL NTAIL PBIAS VDD   VDD PMOS W=40u L=1u
MP1   N1    VIN   NTAIL VDD PMOS W=20u L=1u
MP2   OUT   VFB   NTAIL VDD PMOS W=20u L=1u
MN1   N1    N1    VSS   VSS NMOS W=10u L=1u
MN2   OUT   N1    VSS   VSS NMOS W=10u L=1u

* Non-inverting feedback divider, gain = 1 + RF/RG = 10
RF    OUT   VFB   90k
RG    VFB   VSS   10k

.ENDS PMOS_INPUT_5T_OTA_NONINV

.MODEL NMOS NMOS LEVEL=1 VTO=0.7  KP=120u LAMBDA=0.02
.MODEL PMOS PMOS LEVEL=1 VTO=-0.7 KP=50u  LAMBDA=0.02
```