```spice
.SUBCKT FD_PMOS_2STAGE INP INN OUTP OUTN VDD VSS VBP VBN

* First-stage PMOS differential input pair with NMOS current-source loads
MTAIL NTAIL VBP VDD VDD PMOS_MOD W=40u L=1u
MPINP N1 INP NTAIL VDD PMOS_MOD W=20u L=1u
MPINN N2 INN NTAIL VDD PMOS_MOD W=20u L=1u
MNLD1 N1 VBN VSS VSS NMOS_MOD W=10u L=1u
MNLD2 N2 VBN VSS VSS NMOS_MOD W=10u L=1u

* Second-stage fully differential PMOS common-source gain stages
MP2P OUTP N1 VDD VDD PMOS_MOD W=80u L=1u
MP2N OUTN N2 VDD VDD PMOS_MOD W=80u L=1u
MN2P OUTP VBN VSS VSS NMOS_MOD W=40u L=1u
MN2N OUTN VBN VSS VSS NMOS_MOD W=40u L=1u

.ENDS FD_PMOS_2STAGE

.MODEL NMOS_MOD NMOS LEVEL=1 VTO=0.7 KP=120u LAMBDA=0.02
.MODEL PMOS_MOD PMOS LEVEL=1 VTO=-0.7 KP=50u LAMBDA=0.02
```