```spice
Msw vhold phi vin 0 NMOS W=10u L=180n
Chold vhold 0 1p

.MODEL NMOS NMOS (LEVEL=1 VTO=0.5 KP=200u LAMBDA=0.02)
```