```spice
* 3-stage differential ring oscillator: NMOS differential pairs with resistor loads

* Stage 1
RD1P VDD V1P 10k
RD1N VDD V1N 10k
M1P V1P V3P S1 0 NMOS W=10u L=180n
M1N V1N V3N S1 0 NMOS W=10u L=180n
M1T S1 VBN 0 0 NMOS W=20u L=180n

* Stage 2
RD2P VDD V2P 10k
RD2N VDD V2N 10k
M2P V2P V1P S2 0 NMOS W=10u L=180n
M2N V2N V1N S2 0 NMOS W=10u L=180n
M2T S2 VBN 0 0 NMOS W=20u L=180n

* Stage 3
RD3P VDD V3P 10k
RD3N VDD V3N 10k
M3P V3P V2P S3 0 NMOS W=10u L=180n
M3N V3N V2N S3 0 NMOS W=10u L=180n
M3T S3 VBN 0 0 NMOS W=20u L=180n

.MODEL NMOS NMOS LEVEL=1 VTO=0.5 KP=200u LAMBDA=0.05
```