```spice
MREF IREF IREF SREF VDD PMOS W=10u L=1u
MOUT IOUT IREF SOUT VDD PMOS W=10u L=1u

RSREF VDD SREF 100
RSOUT VDD SOUT 100

.MODEL PMOS PMOS (LEVEL=1 VTO=-0.7 KP=50u LAMBDA=0.02)
```