```spice
.SUBCKT NMOS_GILBERT_RLOAD VDD RF_P RF_N LO_P LO_N OUT_P OUT_N VBIAS_TAIL

RD_P VDD OUT_P 2k
RD_N VDD OUT_N 2k

MTAIL TAIL VBIAS_TAIL 0 0 NMOS_CORE W=20u L=180n

M1 N1 RF_P TAIL 0 NMOS_CORE W=20u L=180n
M2 N2 RF_N TAIL 0 NMOS_CORE W=20u L=180n

M3 OUT_P LO_P N1 0 NMOS_CORE W=10u L=180n
M4 OUT_N LO_N N1 0 NMOS_CORE W=10u L=180n
M5 OUT_N LO_P N2 0 NMOS_CORE W=10u L=180n
M6 OUT_P LO_N N2 0 NMOS_CORE W=10u L=180n

.MODEL NMOS_CORE NMOS LEVEL=1 VTO=0.5 KP=200u LAMBDA=0.05 GAMMA=0.4 PHI=0.7

.ENDS NMOS_GILBERT_RLOAD
```