```spice
.SUBCKT NMOS_TRIPLE_CASCODE_OPAMP INP INN OUT VDD VSS VBN_TAIL VBN1 VBN2 VBN3

* NMOS tail current device
MTAIL NTAIL VBN_TAIL VSS VSS NMOS W=20u L=0.5u

* NMOS input pair with triple cascodes
MNIL NL1 INP NTAIL VSS NMOS W=20u L=0.5u
MNCL1 NL2 VBN1 NL1 VSS NMOS W=10u L=0.5u
MNCL2 NL3 VBN2 NL2 VSS NMOS W=10u L=0.5u
MNCL3 NREF VBN3 NL3 VSS NMOS W=10u L=0.5u

MNIR NR1 INN NTAIL VSS NMOS W=20u L=0.5u
MNCR1 NR2 VBN1 NR1 VSS NMOS W=10u L=0.5u
MNCR2 NR3 VBN2 NR2 VSS NMOS W=10u L=0.5u
MNCR3 OUT VBN3 NR3 VSS NMOS W=10u L=0.5u

* Self-biased PMOS triple-cascode current-mirror load
MPL0 PL1 PL1 VDD VDD PMOS W=30u L=0.5u
MPL1 PL2 PL2 PL1 VDD PMOS W=30u L=0.5u
MPL2 PL3 PL3 PL2 VDD PMOS W=30u L=0.5u
MPL3 NREF NREF PL3 VDD PMOS W=30u L=0.5u

MPR0 PR1 PL1 VDD VDD PMOS W=30u L=0.5u
MPR1 PR2 PL2 PR1 VDD PMOS W=30u L=0.5u
MPR2 PR3 PL3 PR2 VDD PMOS W=30u L=0.5u
MPR3 OUT NREF PR3 VDD PMOS W=30u L=0.5u

.ENDS NMOS_TRIPLE_CASCODE_OPAMP

.MODEL NMOS NMOS LEVEL=1 VTO=0.5 KP=200u LAMBDA=0.02 GAMMA=0.4 PHI=0.7
.MODEL PMOS PMOS LEVEL=1 VTO=-0.5 KP=80u LAMBDA=0.02 GAMMA=0.4 PHI=0.7
```