```spice
* PMOS-input super source follower

M1 nfb vin  vout vdd PMOS W=20u L=180n
M2 vout nfb vdd  vdd PMOS W=40u L=180n
M3 nfb vbiasn 0   0   NMOS W=10u L=180n

.MODEL NMOS NMOS LEVEL=1 VTO=0.5 KP=200u LAMBDA=0.05
.MODEL PMOS PMOS LEVEL=1 VTO=-0.5 KP=100u LAMBDA=0.05
```