```spice
M1   NX    VIN   VOUT  VSS   NMOS  W=10u  L=180n
MFB  NX    VOUT  VSS   VSS   NMOS  W=10u  L=180n
MPB  NX    VBP   VDD   VDD   PMOS  W=20u  L=180n
MNB  VOUT  VBN   VSS   VSS   NMOS  W=10u  L=180n

.MODEL NMOS NMOS LEVEL=1 VTO=0.5 KP=200u LAMBDA=0.05
.MODEL PMOS PMOS LEVEL=1 VTO=-0.5 KP=100u LAMBDA=0.05
```