```spice
M1 IN IN 0 0 NMOS W=10u L=1u
M2 OUT IN 0 0 NMOS W=10u L=1u
.MODEL NMOS NMOS (LEVEL=1 VTO=0.7 KP=100U LAMBDA=0.01)
```