```spice
M1 IREF IREF GND GND NMOD W=1u L=1u
M2 IOUT IREF GND GND NMOD W=1u L=1u M=8
.MODEL NMOD NMOS (LEVEL=1 KP=100U VTO=0.7 LAMBDA=0.02)
```