 ```spice
M1 IIN IIN VDD VDD PMOS W=10u L=1u
M2 IOUT IIN VDD VDD PMOS W=10u L=1u
.MODEL PMOS PMOS (LEVEL=1 VTO=-0.7 KP=50u LAMBDA=0.02)
```