```spice
M1  N1  N1  GND GND NMOS W=10u L=1u
M3  REF REF N1  GND NMOS W=10u L=1u
M2  N2  N1  GND GND NMOS W=10u L=1u
M4  OUT REF N2  GND NMOS W=10u L=1u

.MODEL NMOS NMOS (LEVEL=1 VTO=0.7 KP=100u LAMBDA=0.01)
```