```spice
* 1:1 Cascode PMOS Current Mirror
M1 d1 d1 vdd vdd PMOS W=10u L=1u
M3 in in d1 vdd PMOS W=10u L=1u
M2 d2 d1 vdd vdd PMOS W=10u L=1u
M4 out in d2 vdd PMOS W=10u L=1u

.MODEL PMOS PMOS (LEVEL=1 VTO=-0.7 KP=25U LAMBDA=0.02 GAMMA=0.5 PHI=0.6)
```