```spice
M1 OUT IN VDD VDD PMOS W=10u L=1u
R1 OUT 0 10k
.MODEL PMOS PMOS (LEVEL=1 VTO=-0.7 KP=50u LAMBDA=0.02)
```