 ```spice
M1 VDD VIN VOUT VDD PMOS W=10u L=1u
M2 VOUT VBN GND GND NMOS W=5u L=1u
.MODEL PMOS PMOS (LEVEL=1 VTO=-0.5 KP=50u LAMBDA=0.02)
.MODEL NMOS NMOS (LEVEL=1 VTO=0.5 KP=100u LAMBDA=0.02)
```