 ```spice
RD1 VDD OUTP 10K
RD2 VDD OUTN 10K
M1 OUTP INP TAIL GND NMOS W=10U L=1U
M2 OUTN INN TAIL GND NMOS W=10U L=1U
.MODEL NMOS NMOS (LEVEL=1 VTO=0.7 KP=100U LAMBDA=0.01)
```