 ```spice
M1 OUTN INN SOURCE VDD MP W=10u L=1u
M2 OUTP INP SOURCE VDD MP W=10u L=1u
R1 OUTN GND 10k
R2 OUTP GND 10k
ITAIL VDD SOURCE 100u
.MODEL MP PMOS (VTO=-0.7 KP=50u LAMBDA=0.02)
```