```spice
M1 VB VB VDD VDD PMOS W=10u L=1u
R1 VB 0 100k
.MODEL PMOS PMOS (LEVEL=1 KP=50u VTO=-0.7 LAMBDA=0.02)
```