 ```spice
M1 MID IN 0 0 NMOS W=10u L=0.18u M=1
R1 VDD MID 10k
M2 OUT MID 0 0 NMOS W=10u L=0.18u M=1
R2 VDD OUT 10k

.MODEL NMOS NMOS (LEVEL=1 VTO=0.5 KP=100u LAMBDA=0.01)
```