```spice
M1 MID IN VDD VDD PMOS W=10u L=1u
R1 MID 0 100k
M2 OUT MID VDD VDD PMOS W=10u L=1u
R2 OUT 0 100k

.MODEL PMOS PMOS (LEVEL=1 VTO=-0.7 KP=50U LAMBDA=0.02)
```