 ```spice
M1 OUT IN 0 0 NMOS W=10u L=1u
M2 OUT VBP VDD VDD PMOS W=30u L=1u
.MODEL NMOS NMOS (LEVEL=1 VTO=0.7 KP=200u LAMBDA=0.01)
.MODEL PMOS PMOS (LEVEL=1 VTO=-0.7 KP=100u LAMBDA=0.01)
```