```spice
* PMOS common-source amplifier with NMOS current-source load
M1 VOUT VIN VDD VDD PMOS W=10u L=1u
M2 VOUT VBN 0 0 NMOS W=10u L=1u

.MODEL PMOS PMOS (LEVEL=1 VTO=-0.7 KP=50U LAMBDA=0.02)
.MODEL NMOS NMOS (LEVEL=1 VTO=0.7 KP=100U LAMBDA=0.02)
```