 ```spice
M1 VDD IN OUT GND NCH W=10u L=1u
R1 OUT GND 10k
.MODEL NCH NMOS (LEVEL=1 VTO=0.7 KP=100U LAMBDA=0.02)
```