 ```spice
M1 0 IN OUT VDD PCH W=10u L=1u
R1 VDD OUT 10k
.MODEL PCH PMOS (LEVEL=1 VTO=-0.7 KP=100U LAMBDA=0.02)
```