```spice
M1 REF REF 0 0 NMOD W=1u L=1u
M2 OUT REF 0 0 NMOD W=1u L=1u M=2
.MODEL NMOD NMOS (LEVEL=1 KP=100u VTO=0.5)
```