 ```spice
M1 IREF IREF VDD VDD PCH W=2u L=1u
M2 IOUT IREF VDD VDD PCH W=2u L=1u M=2
.MODEL PCH PMOS (LEVEL=1 KP=50u VTO=-0.7 LAMBDA=0.02)
```