 ```spice
M1 REF REF 0 0 NMOD W=2u L=0.5u
M2 OUT REF 0 0 NMOD W=2u L=0.5u M=4
.MODEL NMOD NMOS (LEVEL=1 KP=200U VTO=0.5 LAMBDA=0.01)
```