```spice
M1 REF REF VDD VDD PMOS W=2u L=0.5u
M2 OUT REF VDD VDD PMOS W=2u L=0.5u M=4
.MODEL PMOS PMOS (LEVEL=1 VTO=-0.7 KP=50U LAMBDA=0.02)
```