```spice
M1 D1 D1 0 0 nmos W=1u L=0.5u
M3 IN IN D1 0 nmos W=1u L=0.5u
M2 S4 D1 0 0 nmos W=1u L=0.5u M=4
M4 OUT IN S4 0 nmos W=1u L=0.5u M=4
.MODEL nmos NMOS (LEVEL=1 VTO=0.7 KP=100U LAMBDA=0.01)
```