 ```spice
* 1:4 Cascode PMOS Current Mirror
MP1  INT  INT  VDD  VDD  PCH  W=10U  L=1U
MP3  IREF IREF INT  VDD  PCH  W=10U  L=1U
MP2  INT2 INT  VDD  VDD  PCH  W=10U  L=1U  M=4
MP4  IOUT IREF INT2 VDD  PCH  W=10U  L=1U  M=4
.MODEL PCH PMOS (LEVEL=1 VTO=-0.7 KP=50U LAMBDA=0.02)
```