 ```spice
M1 D1 D1 0 0 NMOS W=10u L=1u
M2 OUT D1 0 0 NMOS W=10u L=1u
M3 IN OUT D1 0 NMOS W=10u L=1u
.MODEL NMOS NMOS (LEVEL=1 VTO=0.7 KP=100U LAMBDA=0.02)
```