 ```spice
* PMOS Wilson current mirror
M1  N1  N1  VDD  VDD  PMOS  W=10u  L=1u
M2  IOUT  N1  VDD  VDD  PMOS  W=10u  L=1u
M3  IIN  IOUT  N1  VDD  PMOS  W=10u  L=1u

.MODEL PMOS PMOS (LEVEL=1  VTO=-0.7  KP=50U  LAMBDA=0.02)
```