```spice
M1 n1  n1  GND GND nmos W=10u L=1u
M2 out n1  GND GND nmos W=10u L=1u
M3 ref out n1  GND nmos W=10u L=1u

.MODEL nmos NMOS (LEVEL=1 VTO=0.7 KP=100U LAMBDA=0.01)
```