```spice
M1  n1  n1  VDD  VDD  PCH  W=10u  L=1u
M2  out n1  VDD  VDD  PCH  W=10u  L=1u
M3  ref out n1   VDD  PCH  W=10u  L=1u
.MODEL PCH PMOS (LEVEL=1 VTO=-0.7 KP=50U LAMBDA=0.02)
```