```spice
M1 N1 N1 0 0 NMOS W=10U L=1U
M2 N2 N1 0 0 NMOS W=10U L=1U
M3 IN OUT N1 0 NMOS W=10U L=1U
M4 OUT IN N2 0 NMOS W=10U L=1U
.MODEL NMOS NMOS (LEVEL=1 VTO=0.7 KP=100U LAMBDA=0.02)
```