```spice
* Improved 4-Transistor Wilson Current Mirror (PMOS)
MP1  N1   N1   VDD  VDD  PMOS  W=10u  L=1u
MP2  N2   N1   VDD  VDD  PMOS  W=10u  L=1u
MP3  IIN  IOUT N1   VDD  PMOS  W=10u  L=1u
MP4  IOUT IIN  N2   VDD  PMOS  W=10u  L=1u

.MODEL PMOS PMOS (LEVEL=1  VTO=-0.7  KP=50U  LAMBDA=0.02)
```