 ```spice
M3 Iref Vcascode N1 GND NCH W=2u L=0.5u
M1 N1 N1 GND GND NCH W=2u L=0.5u
M4 Iout Vcascode N2 GND NCH W=2u L=0.5u M=8
M2 N2 N1 GND GND NCH W=2u L=0.5u M=8

.MODEL NCH NMOS (LEVEL=1 KP=200u VTO=0.5 LAMBDA=0.02)
```