```spice
M1 OUT1 IN1 TAIL 0 NMOS W=10u L=1u
M2 OUT2 IN2 TAIL 0 NMOS W=10u L=1u
M3 OUT1 OUT1 VDD VDD PMOS W=20u L=1u
M4 OUT2 OUT2 VDD VDD PMOS W=20u L=1u

.MODEL NMOS NMOS (LEVEL=1 KP=100u VTO=0.5)
.MODEL PMOS PMOS (LEVEL=1 KP=40u VTO=-0.5)
```