```spice
M1 OUTN INP TAIL VDD PMOS W=10u L=1u
M2 OUTP INN TAIL VDD PMOS W=10u L=1u
M3 OUTN OUTN GND GND NMOS W=5u L=1u
M4 OUTP OUTP GND GND NMOS W=5u L=1u

.MODEL PMOS PMOS (LEVEL=1 VTO=-0.7 KP=50U)
.MODEL NMOS NMOS (LEVEL=1 VTO=0.7 KP=50U)
```