 ```spice
M1 N1 VINP CS GND NMOS W=10u L=1u
M2 VOUT VINN CS GND NMOS W=10u L=1u
M3 N3 N3 VDD VDD PMOS W=20u L=1u
M4 N4 N3 VDD VDD PMOS W=20u L=1u
M5 N1 VBP N3 VDD PMOS W=20u L=1u
M6 VOUT VBP N4 VDD PMOS W=20u L=1u
M7 CS VBN GND GND NMOS W=10u L=1u

.MODEL NMOS NMOS (LEVEL=1 VTO=0.7 KP=100u LAMBDA=0.02)
.MODEL PMOS PMOS (LEVEL=1 VTO=-0.7 KP=50u LAMBDA=0.02)
```