```spice
M1 NCASC INP TAIL VDD PMOS W=20u L=0.5u
M2 OUT   INN TAIL VDD PMOS W=20u L=0.5u
M3 NREF  NREF GND GND NMOS W=10u L=0.5u
M5 NCASC NCASC NREF GND NMOS W=10u L=0.5u
M4 NINT  NREF GND GND NMOS W=10u L=0.5u
M6 OUT   NCASC NINT GND NMOS W=10u L=0.5u
.MODEL NMOS NMOS (LEVEL=1 VTO=0.7 KP=200u LAMBDA=0.02)
.MODEL PMOS PMOS (LEVEL=1 VTO=-0.7 KP=100u LAMBDA=0.02)
```