 ```spice
M1 OUTP INP S1 VDD PMOS W=10u L=0.18u
M2 OUTN INN S2 VDD PMOS W=10u L=0.18u
RS1 S1 SCOM 1k
RS2 S2 SCOM 1k
RD1 OUTP GND 10k
RD2 OUTN GND 10k
.MODEL PMOS PMOS (LEVEL=1 VTO=-0.4 KP=50u LAMBDA=0.01)
```