 ```spice
M1  ncs1  inp  tail  gnd  NMOS  W=10u  L=1u
M2  ncs2  inn  tail  gnd  NMOS  W=10u  L=1u
M5  tail  vbtail  gnd  gnd  NMOS  W=20u  L=1u
M3  npc  vbn  ncs1  gnd  NMOS  W=10u  L=1u
M4  out  vbn  ncs2  gnd  NMOS  W=10u  L=1u
M6  npc  npc  vdd  vdd  PMOS  W=20u  L=1u
M7  out  npc  vdd  vdd  PMOS  W=20u  L=1u

.MODEL NMOS NMOS (LEVEL=1 VTO=0.5 KP=200U LAMBDA=0.02)
.MODEL PMOS PMOS (LEVEL=1 VTO=-0.5 KP=100U LAMBDA=0.02)
```