```spice
M1 D1 INP TAIL GND N W=10u L=1u
M2 INT INN TAIL GND N W=10u L=1u
M3 D1 D1 VDD VDD P W=20u L=1u
M4 INT D1 VDD VDD P W=20u L=1u
M5 TAIL VB1 GND GND N W=10u L=2u
M6 VOUT INT GND GND N W=50u L=1u
M7 VOUT D1 VDD VDD P W=40u L=1u
Cc INT VOUT 3p

.MODEL N NMOS (LEVEL=1 VTO=0.7 KP=110u LAMBDA=0.04)
.MODEL P PMOS (LEVEL=1 VTO=-0.7 KP=50u LAMBDA=0.05)
```