 ```spice
M1 D1 INP TAIL VDD PMOS W=10u L=1u
M2 N1 INM TAIL VDD PMOS W=10u L=1u
M3 D1 D1 GND GND NMOS W=5u L=1u
M4 N1 D1 GND GND NMOS W=5u L=1u
M5 TAIL VBP VDD VDD PMOS W=20u L=1u
M6 OUT N1 GND GND NMOS W=20u L=1u
M7 OUT VBP VDD VDD PMOS W=40u L=1u
Cc N1 OUT 3p
.MODEL NMOS NMOS (LEVEL=1 VTO=0.7 KP=100u LAMBDA=0.02)
.MODEL PMOS PMOS (LEVEL=1 VTO=-0.7 KP=50u LAMBDA=0.02)
```