 ```spice
M1 N1 VIN GND GND NMOS W=10u L=0.18u
M2 VOUT VBN N1 GND NMOS W=10u L=0.18u
M3 VOUT VBP VDD VDD PMOS W=20u L=0.18u
.MODEL NMOS NMOS (LEVEL=1 KP=200u VTO=0.5)
.MODEL PMOS PMOS (LEVEL=1 KP=100u VTO=-0.5)
```