 ```spice
M1 MID VIN VDD VDD PMOS W=10u L=0.5u
M2 OUT VBP MID VDD PMOS W=10u L=0.5u
M3 OUT VBN GND GND NMOS W=5u L=0.5u

.MODEL PMOS pmos (VTO=-0.7 KP=50u LAMBDA=0.05)
.MODEL NMOS nmos (VTO=0.7 KP=100u LAMBDA=0.05)
```