 ```spice
M1 OUT IN GND GND NMOS W=1u L=0.18u
M2 OUT IN VDD VDD PMOS W=2u L=0.18u

.MODEL NMOS NMOS (LEVEL=1 VTO=0.4 KP=200u LAMBDA=0.02)
.MODEL PMOS PMOS (LEVEL=1 VTO=-0.4 KP=100u LAMBDA=0.02)
```