 ```spice
MPA Y A VDD VDD PMOS W=2u L=0.18u
MPB Y B VDD VDD PMOS W=2u L=0.18u
MNA Y A NINT GND NMOS W=1u L=0.18u
MNB NINT B GND GND NMOS W=1u L=0.18u

.MODEL NMOS NMOS (LEVEL=1 VTO=0.5 KP=100u)
.MODEL PMOS PMOS (LEVEL=1 VTO=-0.5 KP=50u)
```