 ```spice
MMP1 Y A N1 VDD PMOS W=2u L=0.18u
MMP2 N1 B VDD VDD PMOS W=2u L=0.18u
MMN1 Y A GND GND NMOS W=1u L=0.18u
MMN2 Y B GND GND NMOS W=1u L=0.18u

.MODEL NMOS NMOS (LEVEL=1 VTO=0.5 KP=200u LAMBDA=0.01)
.MODEL PMOS PMOS (LEVEL=1 VTO=-0.5 KP=100u LAMBDA=0.01)
```