 ```spice
M1 IN CLK OUT GND NMOS W=1u L=0.18u
M2 OUT CLK_B IN VDD PMOS W=2u L=0.18u

.MODEL NMOS NMOS (LEVEL=1 VTO=0.5 KP=100U)
.MODEL PMOS PMOS (LEVEL=1 VTO=-0.5 KP=50U)
```