 ```spice
* 3-stage CMOS inverter ring oscillator
MP1 N1 N3 VDD VDD PMOS W=2u L=0.18u
MN1 N1 N3 GND GND NMOS W=1u L=0.18u
MP2 N2 N1 VDD VDD PMOS W=2u L=0.18u
MN2 N2 N1 GND GND NMOS W=1u L=0.18u
MP3 N3 N2 VDD VDD PMOS W=2u L=0.18u
MN3 N3 N2 GND GND NMOS W=1u L=0.18u

.MODEL NMOS NMOS (LEVEL=1 VTO=0.5 KP=100U LAMBDA=0.02)
.MODEL PMOS PMOS (LEVEL=1 VTO=-0.5 KP=50U LAMBDA=0.02)
```