 ```spice
MP1 N1 N5 VDD VDD P W=2u L=0.18u
MN1 N1 N5 GND GND N W=1u L=0.18u
MP2 N2 N1 VDD VDD P W=2u L=0.18u
MN2 N2 N1 GND GND N W=1u L=0.18u
MP3 N3 N2 VDD VDD P W=2u L=0.18u
MN3 N3 N2 GND GND N W=1u L=0.18u
MP4 N4 N3 VDD VDD P W=2u L=0.18u
MN4 N4 N3 GND GND N W=1u L=0.18u
MP5 N5 N4 VDD VDD P W=2u L=0.18u
MN5 N5 N4 GND GND N W=1u L=0.18u

.MODEL N NMOS (LEVEL=1 VTO=0.5 KP=100U LAMBDA=0.02)
.MODEL P PMOS (LEVEL=1 VTO=-0.5 KP=50U LAMBDA=0.02)
```