 ```spice
M1 Q QB VDD VDD PMOD W=0.5u L=0.18u
M2 Q QB VSS VSS NMOD W=1.0u L=0.18u
M3 QB Q VDD VDD PMOD W=0.5u L=0.18u
M4 QB Q VSS VSS NMOD W=1.0u L=0.18u
M5 BL WL Q VSS NMOD W=0.5u L=0.18u
M6 BLB WL QB VSS NMOD W=0.5u L=0.18u

.MODEL NMOD NMOS (LEVEL=1 VTO=0.5 KP=200U LAMBDA=0.05)
.MODEL PMOD PMOS (LEVEL=1 VTO=-0.5 KP=100U LAMBDA=0.05)
```