 ```spice
M1 Vout Vin GND GND NMOS W=10u L=1u
M2 VDD VDD Vout GND NMOS W=2u L=1u
.MODEL NMOS NMOS (LEVEL=1 KP=100u VTO=0.7 LAMBDA=0.01)
```