```spice
M1 Vout Vin 0 0 NMOS W=10u L=1u
M2 Vout Vout VDD VDD PMOS W=20u L=1u
.MODEL NMOS NMOS (LEVEL=1 VTO=0.7 KP=100U LAMBDA=0.01)
.MODEL PMOS PMOS (LEVEL=1 VTO=-0.7 KP=50U LAMBDA=0.01)
```