```spice
.MODEL P1 PMOS (LEVEL=1 VTO=-0.7 KP=50U LAMBDA=0.02)

M1 OUT IN VDD VDD P1 W=10U L=1U
M2 GND GND OUT VDD P1 W=5U L=1U
```