```spice
M1 OUT IN VDD VDD PMOS W=10u L=1u
M2 OUT OUT GND GND NMOS W=5u  L=1u

.MODEL NMOS NMOS (LEVEL=1 VTO=0.7  KP=100u LAMBDA=0.02)
.MODEL PMOS PMOS (LEVEL=1 VTO=-0.7 KP=50u  LAMBDA=0.02)
```