```spice
M1 VOUT VIN VS 0 NMOS W=10u L=0.18u
RD VDD VOUT 10k
RS VS 0 1k
.MODEL NMOS NMOS (LEVEL=1 VTO=0.5 KP=200U LAMBDA=0.05)
```