```spice
M1 OUT IN SRC VDD PMOS W=10u L=1u
RS VDD SRC 1k
RD OUT 0 10k
.MODEL PMOS PMOS (LEVEL=1 VTO=-0.7 KP=100u LAMBDA=0.02)
```