```spice
M1 VDD IN OUT VDD PMOS W=20u L=0.5u
M2 OUT VBN GND GND NMOS W=10u L=0.5u
RL OUT GND 10k
.MODEL PMOS PMOS (LEVEL=1 VTO=-0.4 KP=50u LAMBDA=0.02 GAMMA=0.5 PHI=0.6)
.MODEL NMOS NMOS (LEVEL=1 VTO=0.4 KP=100u LAMBDA=0.02 GAMMA=0.5 PHI=0.6)
```