```spice
M1 OUT IN VDD GND NCH W=10u L=0.18u
M2 OUT VB GND GND NCH W=5u L=0.36u
CLOAD OUT GND 1p
.MODEL NCH NMOS (LEVEL=1 VTO=0.7 KP=200U)
```