 ```spice
M1 GND VIN VOUT VDD PMOS W=20u L=0.18u
M2 VOUT VB VDD VDD PMOS W=10u L=0.36u
CL VOUT GND 1p
.MODEL PMOS PMOS (LEVEL=1 KP=30u VTO=-0.5 LAMBDA=0.05)
```