```spice
M1 OUT VG VS 0 NMOS W=10u L=1u
RD VDD OUT 10k
C1 IN VS 1u
I1 VS 0 100u
.MODEL NMOS NMOS (LEVEL=1 VTO=0.7 KP=200u)
```