```spice
M1 D1 IN 0 0 N1 W=10u L=1u
M2 OUT VBN D1 0 N1 W=10u L=1u
R1 VDD OUT 10K
.MODEL N1 NMOS (LEVEL=1 VTO=0.7 KP=200U LAMBDA=0.05)
```