 ```spice
M1 MID IN VDD VDD PCH W=10u L=1u
M2 OUT VBP MID VDD PCH W=10u L=1u
R1 OUT 0 10k
.MODEL PCH PMOS LEVEL=1 VTO=-0.7 KP=50U LAMBDA=0.02
```