 ```spice
M1 VX IN GND GND NMOS W=10u L=1u
M2 OUT VBN VX GND NMOS W=10u L=1u
M3 VY VBP1 VDD VDD PMOS W=20u L=1u
M4 OUT VBP2 VY VDD PMOS W=20u L=1u

.MODEL NMOS NMOS (LEVEL=1 VTO=0.7 KP=200U LAMBDA=0.05)
.MODEL PMOS PMOS (LEVEL=1 VTO=-0.7 KP=100U LAMBDA=0.05)
```