 ```spice
M1 D1 VIP TAIL1 GND N1 W=10u L=1u
M2 D2 VIN TAIL1 GND N1 W=10u L=1u
R1 VDD D1 10k
R2 VDD D2 10k
M3 D3 D1 TAIL2 GND N1 W=10u L=1u
M4 D4 D2 TAIL2 GND N1 W=10u L=1u
R3 VDD D3 10k
R4 VDD D4 10k
.MODEL N1 NMOS (LEVEL=1 VTO=0.7 KP=200u LAMBDA=0.02)
```