 ```spice
M1A D1P INP S1 VDD PCH W=10U L=0.5U
M1B D1M INM S1 VDD PCH W=10U L=0.5U
M1T S1 VB1 VDD VDD PCH W=20U L=0.5U
R1A D1P 0 10K
R1B D1M 0 10K

M2A D2P D1P S2 VDD PCH W=10U L=0.5U
M2B D2M D1M S2 VDD PCH W=10U L=0.5U
M2T S2 VB2 VDD VDD PCH W=20U L=0.5U
R2A D2P 0 10K
R2B D2M 0 10K

.MODEL PCH PMOS (LEVEL=1 VTO=-0.4 KP=100U LAMBDA=0.02)
```