```spice
M1 D1 INP TAIL 0 NMOS W=10u L=1u
M2 OUT INN TAIL 0 NMOS W=10u L=1u
M3 D1 D1 VDD VDD PMOS W=20u L=1u
M4 OUT D1 VDD VDD PMOS W=20u L=1u
M5 TAIL BIAS 0 0 NMOS W=20u L=1u

.MODEL NMOS NMOS (LEVEL=1 VTO=0.7 KP=200U)
.MODEL PMOS PMOS (LEVEL=1 VTO=-0.7 KP=100U)
```