```spice
M1 OUTP INP TAIL VDD PMOS W=20u L=1u
M2 OUTM INM TAIL VDD PMOS W=20u L=1u
M3 OUTP VBN GND GND NMOS W=10u L=1u
M4 OUTM VBN GND GND NMOS W=10u L=1u
M5 TAIL VBP VDD VDD PMOS W=20u L=1u

.MODEL NMOS NMOS (LEVEL=1 VTO=0.7 KP=100U)
.MODEL PMOS PMOS (LEVEL=1 VTO=-0.7 KP=50U)
```