```spice
* PMOS-input telescopic cascode OTA, fully differential output
M1  DP1 VIP   TAIL VDD PCH W=10U L=0.5U
M2  DP2 VIN   TAIL VDD PCH W=10U L=0.5U
M9  TAIL VB_TAIL VDD VDD PCH W=20U L=0.5U
M3  VOP VB_CAS  DP1 VDD PCH W=10U L=0.5U
M4  VON VB_CAS  DP2 VDD PCH W=10U L=0.5U
M5  VOP VB_LOAD  0   0 NCH W=5U  L=0.5U
M6  VON VB_LOAD  0   0 NCH W=5U  L=0.5U

.MODEL PCH PMOS (LEVEL=1 VTO=-0.7 KP=50U  LAMBDA=0.05)
.MODEL NCH NMOS (LEVEL=1 VTO= 0.7 KP=100U LAMBDA=0.05)
```