```spice
M1 OUT1 INP TAIL GND NMOS W=10u L=1u
M2 OUT2 INN TAIL GND NMOS W=10u L=1u
M3 TAIL VBN GND GND NMOS W=20u L=1u
M4 OUT1 VBP VDD VDD PMOS W=40u L=1u
M5 OUT2 VBP VDD VDD PMOS W=40u L=1u
M6 OUT1 OUT1 VDD VDD PMOS W=10u L=1u
M7 OUT2 OUT2 VDD VDD PMOS W=10u L=1u

.MODEL NMOS NMOS (LEVEL=1 VTO=0.7 KP=120U LAMBDA=0.02)
.MODEL PMOS PMOS (LEVEL=1 VTO=-0.7 KP=40U LAMBDA=0.02)
```