 ```spice
* PMOS differential amplifier with parallel current-source and diode-connected loads

M1 OUT1 IN1 SRC VDD PMOS W=20u L=0.5u
M2 OUT2 IN2 SRC VDD PMOS W=20u L=0.5u
M3 OUT1 OUT1 GND GND NMOS W=10u L=0.5u
M4 OUT2 OUT2 GND GND NMOS W=10u L=0.5u
M5 OUT1 VBN GND GND NMOS W=10u L=1.0u
M6 OUT2 VBN GND GND NMOS W=10u L=1.0u
M7 SRC VBP VDD VDD PMOS W=40u L=0.5u

.MODEL PMOS PMOS (LEVEL=1 VTO=-0.4 KP=50U LAMBDA=0.02)
.MODEL NMOS NMOS (LEVEL=1 VTO=0.4 KP=100U LAMBDA=0.02)
```