```spice
M1 OUTP INP TAIL GND NCH W=10u L=0.18u
M2 OUTN INN TAIL GND NCH W=10u L=0.18u
RD1 VDD OUTP 10k
RD2 VDD OUTN 10k
M3 REF REF GND GND NCH W=10u L=0.18u
M4 TAIL REF GND GND NCH W=10u L=0.18u
.MODEL NCH NMOS (LEVEL=1 VTO=0.5 KP=100U LAMBDA=0.01)
```