```spice
* PMOS differential amplifier with resistor loads and PMOS current-mirror tail
M1 OUTP INP TAIL VDD PMOS W=10u L=0.18u
M2 OUTN INN TAIL VDD PMOS W=10u L=0.18u
M3 GTAIL GTAIL VDD VDD PMOS W=20u L=0.18u
M4 TAIL GTAIL VDD VDD PMOS W=20u L=0.18u
R1 OUTP GND 10K
R2 OUTN GND 10K

.MODEL PMOS PMOS (LEVEL=1 VTO=-0.7 KP=50U LAMBDA=0.02)
```