```spice
M1 OUT IN GND GND N W=10u L=180n
RD VDD OUT 10k
RF OUT IN 100k
.MODEL N NMOS (LEVEL=1 VTO=0.5 KP=200u LAMBDA=0.02)
```