```spice
M1 OUT IN VDD VDD PCH W=10u L=0.18u
RD OUT 0 10k
RF OUT IN 1Meg
.MODEL PCH PMOS (LEVEL=1 VTO=-0.7 KP=50u LAMBDA=0.02)
```