 ```spice
M1 D1  VIN VS  GND MN W=10u L=1u
M2 OUT OUT VS  GND MN W=10u L=1u
M3 D1  D1  VDD VDD MP W=20u L=1u
M4 OUT D1  VDD VDD MP W=20u L=1u
M5 VS  VB  GND GND MN W=10u L=2u
.MODEL MN NMOS (LEVEL=1 VTO=0.7 KP=200U LAMBDA=0.01)
.MODEL MP PMOS (LEVEL=1 VTO=-0.7 KP=100U LAMBDA=0.01)
```