```spice
* PMOS-input 5T OTA in unity-gain buffer configuration
M1 D1 VIN COMMON VDD PMOS W=20u L=1u
M2 VOUT VOUT COMMON VDD PMOS W=20u L=1u
M3 D1 D1 GND GND NMOS W=10u L=1u
M4 VOUT D1 GND GND NMOS W=10u L=1u
M5 COMMON VB VDD VDD PMOS W=40u L=1u

.MODEL NMOS NMOS (LEVEL=1 VTO=0.7 KP=100U LAMBDA=0.01)
.MODEL PMOS PMOS (LEVEL=1 VTO=-0.7 KP=50U LAMBDA=0.01)
```