 ```spice
* NMOS-input 5T OTA non-inverting amplifier with resistor-divider feedback
M1 D1 INP TAIL GND NMOS W=10u L=1u
M2 OUT INN TAIL GND NMOS W=10u L=1u
M3 D1 D1 VDD VDD PMOS W=20u L=1u
M4 OUT D1 VDD VDD PMOS W=20u L=1u
M5 TAIL BIAS GND GND NMOS W=20u L=1u
R1 OUT INN 10k
R2 INN GND 10k
.MODEL NMOS NMOS (LEVEL=1 KP=100u VTO=0.5 LAMBDA=0.01)
.MODEL PMOS PMOS (LEVEL=1 KP=50u VTO=-0.5 LAMBDA=0.01)
```