 ```spice
M1 D1 VIN S VDD PCH W=20u L=1u
M2 VOUT VFB S VDD PCH W=20u L=1u
M3 D1 D1 GND GND NCH W=10u L=1u
M4 VOUT D1 GND GND NCH W=10u L=1u
M5 S VBIAS VDD VDD PCH W=40u L=1u
R1 VOUT VFB 90k
R2 VFB GND 10k
.MODEL PCH PMOS (LEVEL=1 VTO=-0.7 KP=50u LAMBDA=0.02)
.MODEL NCH NMOS (LEVEL=1 VTO=0.7 KP=100u LAMBDA=0.02)
```