 ```spice
M1 VO1P VIP VCP VDD PMOS W=20u L=1u
M2 VO1M VIM VCP VDD PMOS W=20u L=1u
M5 VCP VBP1 VDD VDD PMOS W=10u L=1u
M3 VO1P VBN1 0 0 NMOS W=10u L=1u
M4 VO1M VBN1 0 0 NMOS W=10u L=1u
M6 VOUTP VO1P 0 0 NMOS W=20u L=1u
M7 VOUTM VO1M 0 0 NMOS W=20u L=1u
M8 VOUTP VBP2 VDD VDD PMOS W=10u L=1u
M9 VOUTM VBP2 VDD VDD PMOS W=10u L=1u
.MODEL NMOS NMOS (LEVEL=1 VTO=0.5 KP=100U LAMBDA=0.01)
.MODEL PMOS PMOS (LEVEL=1 VTO=-0.5 KP=50U LAMBDA=0.01)
```