```spice
* NMOS differential amplifier with resistive common-mode feedback
M1  VOUTP VINP  VTAIL 0    NMOS W=10u L=1u
M2  VOUTN VINN  VTAIL 0    NMOS W=10u L=1u
M3  VTAIL VBN   0     0    NMOS W=20u L=1u
M4  VOUTP VCMFB VDD   VDD  PMOS W=40u L=1u
M5  VOUTN VCMFB VDD   VDD  PMOS W=40u L=1u
R1  VOUTP VCMFB 100k
R2  VOUTN VCMFB 100k
.MODEL NMOS NMOS (LEVEL=1 VTO=0.7  KP=100u LAMBDA=0.01)
.MODEL PMOS PMOS (LEVEL=1 VTO=-0.7 KP=50u  LAMBDA=0.01)
```