```spice
M1 OUTN INP TAIL VDD PMOS W=10u L=0.18u
M2 OUTP INN TAIL VDD PMOS W=10u L=0.18u
M3 TAIL CMFB VDD VDD PMOS W=20u L=0.18u
M4 OUTN VB_N GND GND NMOS W=5u L=0.18u
M5 OUTP VB_N GND GND NMOS W=5u L=0.18u
RCM1 OUTN CMFB 100k
RCM2 OUTP CMFB 100k

.MODEL PMOS PMOS (LEVEL=1 KP=40u VTO=-0.5 LAMBDA=0.02)
.MODEL NMOS NMOS (LEVEL=1 KP=100u VTO=0.5 LAMBDA=0.02)
```