```spice
MSW IN CLK OUT 0 NMOS W=10u L=0.18u
CHOLD OUT 0 1p
.MODEL NMOS NMOS (LEVEL=1 VTO=0.5 KP=200U GAMMA=0.5 PHI=0.6 LAMBDA=0.01)
```