```spice
M1 OUT PHIB IN VDD PMOS W=2u L=0.18u
CHOLD OUT 0 1p
.MODEL PMOS PMOS (LEVEL=1 VTO=-0.5 KP=50u LAMBDA=0.02)
```