```spice
M1 N1 N3 0 0 NMOD W=10U L=1U
M2 N2 N1 0 0 NMOD W=10U L=1U
M3 N3 N2 0 0 NMOD W=10U L=1U
R1 VDD N1 10K
R2 VDD N2 10K
R3 VDD N3 10K
.MODEL NMOD NMOS (LEVEL=1 VTO=0.7 KP=100U)
```