 ```spice
M1 N1 N3 VDD VDD PCH W=2U L=0.5U
R1 N1 0 100K
M2 N2 N1 VDD VDD PCH W=2U L=0.5U
R2 N2 0 100K
M3 N3 N2 VDD VDD PCH W=2U L=0.5U
R3 N3 0 100K
.MODEL PCH PMOS (LEVEL=1 VTO=-0.7 KP=50U LAMBDA=0.02)
```