 ```spice
M1 ND1 ND1 NS1 0 NMOD W=10u L=1u
M2 ND2 ND1 NS2 0 NMOD W=10u L=1u
R1 NS1 0 1k
R2 NS2 0 1k
.MODEL NMOD NMOS (LEVEL=1 VTO=0.7 KP=100U LAMBDA=0.01)
```