 ```spice
M1 N1 N1 S1 VDD PMOS W=10u L=1u
M2 N2 N1 S2 VDD PMOS W=10u L=1u
R1 VDD S1 1k
R2 VDD S2 1k
.MODEL PMOS PMOS (LEVEL=1 VTO=-0.7 KP=50u LAMBDA=0.02)
```