 ```spice
M1 OUTP LO+ SRCA 0 N W=10u L=1u
M2 OUTN LO- SRCA 0 N W=10u L=1u
M3 OUTN LO+ SRCB 0 N W=10u L=1u
M4 OUTP LO- SRCB 0 N W=10u L=1u
M5 SRCA RF+ TAIL 0 N W=10u L=1u
M6 SRCB RF- TAIL 0 N W=10u L=1u
R1 VDD OUTP 5k
R2 VDD OUTN 5k
.MODEL N NMOS (LEVEL=1 KP=100u VTO=0.5 LAMBDA=0.01)
```