 ```spice
* NMOS-input telescopic cascode amplifier
* wide-swing PMOS cascode mirror load, single-ended output at VOUT

* Tail current source
MTAIL   N_TAIL  VBTAIL  GND     GND     NMOS  W=10u  L=1u

* NMOS differential input pair
M1      N_X1    VINP    N_TAIL  GND     NMOS  W=10u  L=1u
M2      N_X2    VINM    N_TAIL  GND     NMOS  W=10u  L=1u

* NMOS cascode devices
M3      N_L     VBN     N_X1    GND     NMOS  W=10u  L=1u
M4      VOUT    VBN     N_X2    GND     NMOS  W=10u  L=1u

* PMOS main mirror devices (reference + mirror)
M5      N_REF   N_REF   VDD     VDD     PMOS  W=10u  L=1u
M6      N_AUX   N_REF   VDD     VDD     PMOS  W=10u  L=1u

* PMOS cascode devices (wide-swing gate bias = VBP)
M7      N_L     VBP     N_REF   VDD     PMOS  W=10u  L=1u
M8      VOUT    VBP     N_AUX   VDD     PMOS  W=10u  L=1u

.MODEL  NMOS  NMOS  (LEVEL=1  VTO=0.7   KP=200U  LAMBDA=0.05  GAMMA=0.5  PHI=0.6)
.MODEL  PMOS  PMOS  (LEVEL=1  VTO=-0.7  KP=100U  LAMBDA=0.05  GAMMA=0.5  PHI=0.6)
```