```spice
M1 VOP VOM GND GND NMOS W=10u L=0.18u
M2 VOM VOP GND GND NMOS W=10u L=0.18u
L1 VDD VOP 1n
L2 VDD VOM 1n
C1 VOP VOM 1p
.MODEL NMOS NMOS (LEVEL=1 VTO=0.5 KP=200U GAMMA=0 LAMBDA=0 PHI=0.6)
```