```spice
M1 REF REF GND GND NMOD W=10u L=1u
M2 OUT REF SRC GND NMOD W=10u L=1u
R1 SRC GND 1k
.MODEL NMOD NMOS (KP=100u VTO=0.7 LAMBDA=0.01)
```