```spice
M1 REF REF VDD VDD PMOS W=10u L=1u
M2 OUT REF VS VDD PMOS W=10u L=1u
RW VDD VS 10k
.MODEL PMOS PMOS (KP=50u VTO=-0.7 LAMBDA=0.02)
```